00 Model Acceptance Test GPM/Test Files/Under_Frequency_Trip_Test/PSSEOut/001_02.Frequency step to 49Hz_Prog.dat





HUAWEI SOLUTION MODEL TEST SYSTEM
SUN2000 90KTL + PPC

The Saved Case in file C:\Users\Z3209715\PycharmProjects\PSSE_HW\00 Model Acceptance Test GPM\Test Files\001_scr_3.0_xr_3.0_P_100.0_Qzero.sav was saved on FRI, SEP 21 2018  14:22



Generator conversion completed using ZSORCE





0 loads converted during this step



0 of 0 loads converted


Diagonals = 4   Off-diagonals = 3   Maximum size = 6



4 diagonal and 3 off-diagonal elements



ITER DELTAV/TOL X----------- AT BUS -----------X  REAL(DELTAV)  IMAG(DELTAV)
   1     0.010     100     [INV TERMINAL0.8000]   -0.9338E-07   -0.2030E-07

Reached tolerance in 1 iterations

Largest mismatch:     -0.00 MW      1.18 Mvar      1.18 MVA at bus 500 [REF BUS     220.00]
System total absolute mismatch:                    1.18 MVA


ibrary added:C:\Users\Z3209715\PycharmProjects\PSSE_HW\00 Model Acceptance Test GPM\dsusr_zingen_34_2.dll


ibrary added:C:\Users\Z3209715\PycharmProjects\PSSE_HW\00 Model Acceptance Test GPM\HWH9001_342.dll


ibrary added:C:\Users\Z3209715\PycharmProjects\PSSE_HW\00 Model Acceptance Test GPM\MOD_GPM_PPC_V13_34.dll


ibrary added:C:\Users\Z3209715\PycharmProjects\PSSE_HW\00 Model Acceptance Test GPM\MOD_GPM_SB_V7.dll


Out of file data--switch to terminal input mode

Generator models use:
 CONS        1-   176
 STATES      1-     8
 VARS        1-    99
 ICONS       1-     8

Stabilizer models use:
 CONS      177-   177
 VARS      100-   109
 ICONS       9-    10

Excitation System models use:
 CONS      178-   216
 VARS      110-   210
 ICONS      11-    27


SUMMARY OF MODELS READ:

USER:  USRMDL
          4

NEXT AVAILABLE ADDRESSES ARE:
   CON  STATE    VAR   ICON
   217      9    211     28

Compile models not supplied by PSS/E and create user dll



Case saved in file C:\Users\Z3209715\PycharmProjects\PSSE_HW\00 Model Acceptance Test GPM\Test Files\Conv.sav on FRI, SEP 21 2018  14:29









CHANNEL    1 WITH IDENTIFIER "UUT_VOLTAGE" ADDED



CHANNEL    2 WITH IDENTIFIER "UUT_PELEC" ADDED



CHANNEL    3 WITH IDENTIFIER "UUT_QELEC" ADDED



CHANNEL    4 WITH IDENTIFIER "POC_VOLTAGE" ADDED



CHANNEL    5 WITH IDENTIFIER "P_POC" ADDED

CHANNEL    6 WITH IDENTIFIER "Q_POC" ADDED



CHANNEL    7 WITH IDENTIFIER "SYS FREQ DEVIATION" ADDED



CHANNEL    8 WITH IDENTIFIER "SMIB_VOLTAGE" ADDED



Snapshot at TIME = 0.0 saved in file C:\Users\Z3209715\PycharmProjects\PSSE_HW\00 Model Acceptance Test GPM\Test Files\Snap.snp on FRI, SEP 21 2018  14:29



HUAWEI SOLUTION MODEL TEST SYSTEM
SUN2000 90KTL + PPC

The Saved Case in file C:\Users\Z3209715\PycharmProjects\PSSE_HW\00 Model Acceptance Test GPM\Test Files\Conv.sav was saved on FRI, SEP 21 2018  14:29



The Snapshot at TIME = 0.0 in file C:\Users\Z3209715\PycharmProjects\PSSE_HW\00 Model Acceptance Test GPM\Test Files\Snap.snp was saved on FRI, SEP 21 2018  14:29

NUMBER OF ELEMENTS RESTORED:
  CONS STATES   VARS  ICONS CHANNELS
   216      8    214     32      8



4 diagonal and 3 off-diagonal elements

    PTI INTERACTIVE POWER SYSTEM SIMULATOR--PSS(R)E     FRI, SEP 21 2018  14:29
HUAWEI SOLUTION MODEL TEST SYSTEM
SUN2000 90KTL + PPC

INITIAL CONDITION LOAD FLOW USED 1 ITERATIONS

----------------------------- MACHINE INITIAL CONDITIONS -----------------------------
  BUS#-SCT X-- NAME --X BASKV ID  ETERM   EFD    POWER    VARS   P.F.  ANGLE   ID     IQ
   100     INV TERMINAL0.8000 1  1.0081 0.0000  100.00    0.00 1.0000   0.00-0.3989 0.9082
   500     REF BUS     220.00 1  0.0000 0.0000    0.00    0.00 0.0000   0.00 0.0000 0.0000

INITIAL CONDITIONS CHECK O.K.

Channel output file is "C:\Users\Z3209715\PycharmProjects\PSSE_HW\00 Model Acceptance Test GPM\Test Files\Under_Frequency_Trip_Test\Results\001_scr_3.0_xr_3.0_P_100.0_Qzero.sav_02.Frequency step to 49Hz.out"



    PTI INTERACTIVE POWER SYSTEM SIMULATOR--PSS(R)E     FRI, SEP 21 2018  14:29
HUAWEI SOLUTION MODEL TEST SYSTEM
SUN2000 90KTL + PPC

INITIAL CONDITION LOAD FLOW USED 1 ITERATIONS

----------------------------- MACHINE INITIAL CONDITIONS -----------------------------
  BUS#-SCT X-- NAME --X BASKV ID  ETERM   EFD    POWER    VARS   P.F.  ANGLE   ID     IQ
   100     INV TERMINAL0.8000 1  1.0081 0.0000  100.00    0.00 1.0000 679.32-0.8945 0.4287
   500     REF BUS     220.00 1  0.0000 0.0000    0.00    0.00 0.0000-679.32 0.0000 0.0000

INITIAL CONDITIONS CHECK O.K.

Channel output file is "C:\Users\Z3209715\PycharmProjects\PSSE_HW\00 Model Acceptance Test GPM\Test Files\Under_Frequency_Trip_Test\Results\001_scr_3.0_xr_3.0_P_100.0_Qzero.sav_02.Frequency step to 49Hz.out"



    PTI INTERACTIVE POWER SYSTEM SIMULATOR--PSS(R)E     FRI, SEP 21 2018  14:29
HUAWEI SOLUTION MODEL TEST SYSTEM
SUN2000 90KTL + PPC

INITIAL CONDITION LOAD FLOW USED 1 ITERATIONS

----------------------------- MACHINE INITIAL CONDITIONS -----------------------------
  BUS#-SCT X-- NAME --X BASKV ID  ETERM   EFD    POWER    VARS   P.F.  ANGLE   ID     IQ
   100     INV TERMINAL0.8000 1  1.0081 0.0000  100.00    0.00 1.00001018.98-0.9878 0.0910
   500     REF BUS     220.00 1  0.0000 0.0000    0.00    0.00 0.0000******* 0.0000 0.0000

INITIAL CONDITIONS CHECK O.K.

Channel output file is "C:\Users\Z3209715\PycharmProjects\PSSE_HW\00 Model Acceptance Test GPM\Test Files\Under_Frequency_Trip_Test\Results\001_scr_3.0_xr_3.0_P_100.0_Qzero.sav_02.Frequency step to 49Hz.out"



Channel output file is "C:\Users\Z3209715\PycharmProjects\PSSE_HW\00 Model Acceptance Test GPM\Test Files\Under_Frequency_Trip_Test\Results\001_scr_3.0_xr_3.0_P_100.0_Qzero.sav_02.Frequency step to 49Hz.out"

   TIME X- VALUE --X X--------- IDENTIFIER ---------X X- VALUE --X X--------- IDENTIFIER ---------X
-0.0020   1.0081     UUT_VOLTAGE                        1.0000     UUT_PELEC
    3     0.0000     UUT_QELEC                          1.0410     POC_VOLTAGE
    5     99.133     P_POC                             -13.412     Q_POC
    7     0.0000     SYS FREQ DEVIATION                 1.0272     SMIB_VOLTAGE

 0.0030   1.0081       1.0000       0.0000       1.0410       99.132      -13.412
    7    4.60159E-08   1.0272

 0.0080   1.0081       1.0000       0.0000       1.0410       99.132      -13.413
    7    4.94005E-08   1.0272

 0.0130   1.0081       1.0000       0.0000       1.0410       99.132      -13.413
    7    4.58389E-08   1.0272

 0.0180   1.0081       1.0000       0.0000       1.0410       99.132      -13.413
    7    4.25316E-08   1.0272

   TIME X- VALUE --X X--------- IDENTIFIER ---------X X- VALUE --X X--------- IDENTIFIER ---------X
 0.0230   1.0081     UUT_VOLTAGE                        1.0000     UUT_PELEC
    3     0.0000     UUT_QELEC                          1.0410     POC_VOLTAGE
    5     99.132     P_POC                             -13.413     Q_POC
    7    3.73588E-08 SYS FREQ DEVIATION                 1.0272     SMIB_VOLTAGE

 0.0280   1.0081       1.0000       0.0000       1.0410       99.132      -13.413
    7    3.50598E-08   1.0272

 0.0330   1.0081       1.0000       0.0000       1.0410       99.132      -13.413
    7    3.08911E-08   1.0272

 0.0380   1.0081       1.0000       0.0000       1.0410       99.132      -13.413
    7    2.72180E-08   1.0272

 0.0430   1.0081       1.0000       0.0000       1.0410       99.132      -13.413
    7    2.39816E-08   1.0272

   TIME X- VALUE --X X--------- IDENTIFIER ---------X X- VALUE --X X--------- IDENTIFIER ---------X
 0.0480   1.0081     UUT_VOLTAGE                        1.0000     UUT_PELEC
    3     0.0000     UUT_QELEC                          1.0410     POC_VOLTAGE
    5     99.132     P_POC                             -13.413     Q_POC
    7    2.11301E-08 SYS FREQ DEVIATION                 1.0272     SMIB_VOLTAGE

 0.0530   1.0081       1.0000       0.0000       1.0410       99.132      -13.413
    7    1.86177E-08   1.0272

 0.0580   1.0081       1.0000       0.0000       1.0410       99.132      -13.413
    7    1.64039E-08   1.0272

 0.0630   1.0081       1.0000       0.0000       1.0410       99.132      -13.413
    7    1.44534E-08   1.0272

 0.0680   1.0081       1.0000       0.0000       1.0410       99.132      -13.413
    7    1.27349E-08   1.0272

   TIME X- VALUE --X X--------- IDENTIFIER ---------X X- VALUE --X X--------- IDENTIFIER ---------X
 0.0730   1.0081     UUT_VOLTAGE                        1.0000     UUT_PELEC
    3     0.0000     UUT_QELEC                          1.0410     POC_VOLTAGE
    5     99.132     P_POC                             -13.413     Q_POC
    7    1.12206E-08 SYS FREQ DEVIATION                 1.0272     SMIB_VOLTAGE

 0.0780   1.0081       1.0000       0.0000       1.0410       99.132      -13.413
    7    9.88645E-09   1.0272

 0.0830   1.0081       1.0000       0.0000       1.0410       99.132      -13.413
    7    8.71091E-09   1.0272

 0.0880   1.0081       1.0000       0.0000       1.0410       99.132      -13.413
    7    7.67514E-09   1.0272

 0.0930   1.0081       1.0000       0.0000       1.0410       99.132      -13.413
    7    6.76254E-09   1.0272

   TIME X- VALUE --X X--------- IDENTIFIER ---------X X- VALUE --X X--------- IDENTIFIER ---------X
 0.0980   1.0081     UUT_VOLTAGE                        1.0000     UUT_PELEC
    3     0.0000     UUT_QELEC                          1.0410     POC_VOLTAGE
    5     99.132     P_POC                             -13.413     Q_POC
    7    5.95844E-09 SYS FREQ DEVIATION                 1.0272     SMIB_VOLTAGE

 0.1030   1.0081       1.0000       0.0000       1.0410       99.132      -13.413
    7    5.24996E-09   1.0272

 0.1080   1.0081       1.0000       0.0000       1.0410       99.132      -13.413
    7    4.62571E-09   1.0272

 0.1130   1.0081       1.0000       0.0000       1.0410       99.132      -13.413
    7    4.07570E-09   1.0272

 0.1180   1.0081       1.0000       0.0000       1.0410       99.132      -13.413
    7    3.59108E-09   1.0272

   TIME X- VALUE --X X--------- IDENTIFIER ---------X X- VALUE --X X--------- IDENTIFIER ---------X
 0.1230   1.0081     UUT_VOLTAGE                        1.0000     UUT_PELEC
    3     0.0000     UUT_QELEC                          1.0410     POC_VOLTAGE
    5     99.132     P_POC                             -13.413     Q_POC
    7    3.16408E-09 SYS FREQ DEVIATION                 1.0272     SMIB_VOLTAGE

 0.1280   1.0081       1.0000       0.0000       1.0410       99.132      -13.413
    7    2.78786E-09   1.0272

 0.1330   1.0081       1.0000       0.0000       1.0410       99.132      -13.413
    7    2.45637E-09   1.0272

 0.1380   1.0081       1.0000       0.0000       1.0410       99.132      -13.413
    7    2.16430E-09   1.0272

 0.1430   1.0081       1.0000       0.0000       1.0410       99.132      -13.413
    7    1.90695E-09   1.0272

   TIME X- VALUE --X X--------- IDENTIFIER ---------X X- VALUE --X X--------- IDENTIFIER ---------X
 0.1480   1.0081     UUT_VOLTAGE                        1.0000     UUT_PELEC
    3     0.0000     UUT_QELEC                          1.0410     POC_VOLTAGE
    5     99.132     P_POC                             -13.413     Q_POC
    7    1.68021E-09 SYS FREQ DEVIATION                 1.0272     SMIB_VOLTAGE

 0.1530   1.0081       1.0000       0.0000       1.0410       99.132      -13.413
    7    1.48043E-09   1.0272

 0.1580   1.0081       1.0000       0.0000       1.0410       99.132      -13.413
    7    1.30440E-09   1.0272

 0.1630   1.0081       1.0000       0.0000       1.0410       99.132      -13.413
    7    1.14930E-09   1.0272

 0.1680   1.0081       1.0000       0.0000       1.0410       99.132      -13.413
    7    1.01264E-09   1.0272

   TIME X- VALUE --X X--------- IDENTIFIER ---------X X- VALUE --X X--------- IDENTIFIER ---------X
 0.1730   1.0081     UUT_VOLTAGE                        1.0000     UUT_PELEC
    3     0.0000     UUT_QELEC                          1.0410     POC_VOLTAGE
    5     99.132     P_POC                             -13.413     Q_POC
    7    8.92234E-10 SYS FREQ DEVIATION                 1.0272     SMIB_VOLTAGE

 0.1780   1.0081       1.0000       0.0000       1.0410       99.132      -13.413
    7    7.86143E-10   1.0272

 0.1830   1.0081       1.0000       0.0000       1.0410       99.132      -13.413
    7    6.92668E-10   1.0272

 0.1880   1.0081       1.0000       0.0000       1.0410       99.132      -13.413
    7    6.10306E-10   1.0272

 0.1930   1.0081       1.0000       0.0000       1.0410       99.132      -13.413
    7    5.37738E-10   1.0272

   TIME X- VALUE --X X--------- IDENTIFIER ---------X X- VALUE --X X--------- IDENTIFIER ---------X
 0.1980   1.0081     UUT_VOLTAGE                        1.0000     UUT_PELEC
    3     0.0000     UUT_QELEC                          1.0410     POC_VOLTAGE
    5     99.132     P_POC                             -13.413     Q_POC
    7    4.73799E-10 SYS FREQ DEVIATION                 1.0272     SMIB_VOLTAGE

 0.2030   1.0081       1.0000       0.0000       1.0410       99.132      -13.413
    7    4.17462E-10   1.0272

 0.2080   1.0081       1.0000       0.0000       1.0410       99.132      -13.413
    7    3.67824E-10   1.0272

 0.2130   1.0081       1.0000       0.0000       1.0410       99.132      -13.413
    7    3.24088E-10   1.0272

 0.2180   1.0081       1.0000       0.0000       1.0410       99.132      -13.413
    7    2.85553E-10   1.0272

   TIME X- VALUE --X X--------- IDENTIFIER ---------X X- VALUE --X X--------- IDENTIFIER ---------X
 0.2230   1.0081     UUT_VOLTAGE                        1.0000     UUT_PELEC
    3     0.0000     UUT_QELEC                          1.0410     POC_VOLTAGE
    5     99.132     P_POC                             -13.413     Q_POC
    7    2.51599E-10 SYS FREQ DEVIATION                 1.0272     SMIB_VOLTAGE

 0.2280   1.0081       1.0000       0.0000       1.0410       99.132      -13.413
    7    2.21683E-10   1.0272

 0.2330   1.0081       1.0000       0.0000       1.0410       99.132      -13.413
    7    1.95324E-10   1.0272

 0.2380   1.0081       1.0000       0.0000       1.0410       99.132      -13.413
    7    1.72099E-10   1.0272

 0.2430   1.0081       1.0000       0.0000       1.0410       99.132      -13.413
    7    1.51636E-10   1.0272

   TIME X- VALUE --X X--------- IDENTIFIER ---------X X- VALUE --X X--------- IDENTIFIER ---------X
 0.2480   1.0081     UUT_VOLTAGE                        1.0000     UUT_PELEC
    3     0.0000     UUT_QELEC                          1.0410     POC_VOLTAGE
    5     99.132     P_POC                             -13.413     Q_POC
    7    1.33606E-10 SYS FREQ DEVIATION                 1.0272     SMIB_VOLTAGE

 0.2530   1.0081       1.0000       0.0000       1.0410       99.132      -13.413
    7    1.17719E-10   1.0272

 0.2580   1.0081       1.0000       0.0000       1.0410       99.132      -13.413
    7    1.03722E-10   1.0272

 0.2630   1.0081       1.0000       0.0000       1.0410       99.132      -13.413
    7    9.13890E-11   1.0272

 0.2680   1.0081       1.0000       0.0000       1.0410       99.132      -13.413
    7    8.05224E-11   1.0272

   TIME X- VALUE --X X--------- IDENTIFIER ---------X X- VALUE --X X--------- IDENTIFIER ---------X
 0.2730   1.0081     UUT_VOLTAGE                        1.0000     UUT_PELEC
    3     0.0000     UUT_QELEC                          1.0410     POC_VOLTAGE
    5     99.132     P_POC                             -13.413     Q_POC
    7    7.09480E-11 SYS FREQ DEVIATION                 1.0272     SMIB_VOLTAGE

 0.2780   1.0081       1.0000       0.0000       1.0410       99.132      -13.413
    7    6.25120E-11   1.0272

 0.2830   1.0081       1.0000       0.0000       1.0410       99.132      -13.413
    7    5.50790E-11   1.0272

 0.2880   1.0081       1.0000       0.0000       1.0410       99.132      -13.413
    7    4.85299E-11   1.0272

 0.2930   1.0081       1.0000       0.0000       1.0410       99.132      -13.413
    7    4.27595E-11   1.0272

   TIME X- VALUE --X X--------- IDENTIFIER ---------X X- VALUE --X X--------- IDENTIFIER ---------X
 0.2980   1.0081     UUT_VOLTAGE                        1.0000     UUT_PELEC
    3     0.0000     UUT_QELEC                          1.0410     POC_VOLTAGE
    5     99.132     P_POC                             -13.413     Q_POC
    7    3.76752E-11 SYS FREQ DEVIATION                 1.0272     SMIB_VOLTAGE

 0.3030   1.0081       1.0000       0.0000       1.0410       99.132      -13.413
    7    3.31954E-11   1.0272

 0.3080   1.0081       1.0000       0.0000       1.0410       99.132      -13.413
    7    2.92484E-11   1.0272

 0.3130   1.0081       1.0000       0.0000       1.0410       99.132      -13.413
    7    2.57706E-11   1.0272

 0.3180   1.0081       1.0000       0.0000       1.0410       99.132      -13.413
    7    2.27064E-11   1.0272

   TIME X- VALUE --X X--------- IDENTIFIER ---------X X- VALUE --X X--------- IDENTIFIER ---------X
 0.3230   1.0081     UUT_VOLTAGE                        1.0000     UUT_PELEC
    3     0.0000     UUT_QELEC                          1.0410     POC_VOLTAGE
    5     99.132     P_POC                             -13.413     Q_POC
    7    2.00065E-11 SYS FREQ DEVIATION                 1.0272     SMIB_VOLTAGE

 0.3280   1.0081       1.0000       0.0000       1.0410       99.132      -13.413
    7    1.76276E-11   1.0272

 0.3330   1.0081       1.0000       0.0000       1.0410       99.132      -13.413
    7    1.55316E-11   1.0272

 0.3380   1.0081       1.0000       0.0000       1.0410       99.132      -13.413
    7    1.36848E-11   1.0272

 0.3430   1.0081       1.0000       0.0000       1.0410       99.132      -13.413
    7    1.20577E-11   1.0272

   TIME X- VALUE --X X--------- IDENTIFIER ---------X X- VALUE --X X--------- IDENTIFIER ---------X
 0.3480   1.0081     UUT_VOLTAGE                        1.0000     UUT_PELEC
    3     0.0000     UUT_QELEC                          1.0410     POC_VOLTAGE
    5     99.132     P_POC                             -13.413     Q_POC
    7    1.06240E-11 SYS FREQ DEVIATION                 1.0272     SMIB_VOLTAGE

 0.3530   1.0081       1.0000       0.0000       1.0410       99.132      -13.413
    7    9.36072E-12   1.0272

 0.3580   1.0081       1.0000       0.0000       1.0410       99.132      -13.413
    7    8.24769E-12   1.0272

 0.3630   1.0081       1.0000       0.0000       1.0410       99.132      -13.413
    7    7.26700E-12   1.0272

 0.3680   1.0081       1.0000       0.0000       1.0410       99.132      -13.413
    7    6.40293E-12   1.0272

   TIME X- VALUE --X X--------- IDENTIFIER ---------X X- VALUE --X X--------- IDENTIFIER ---------X
 0.3730   1.0081     UUT_VOLTAGE                        1.0000     UUT_PELEC
    3     0.0000     UUT_QELEC                          1.0410     POC_VOLTAGE
    5     99.132     P_POC                             -13.413     Q_POC
    7    5.64159E-12 SYS FREQ DEVIATION                 1.0272     SMIB_VOLTAGE

 0.3780   1.0081       1.0000       0.0000       1.0410       99.132      -13.413
    7    4.97078E-12   1.0272

 0.3830   1.0081       1.0000       0.0000       1.0410       99.132      -13.413
    7    4.37973E-12   1.0272

 0.3880   1.0081       1.0000       0.0000       1.0410       99.132      -13.413
    7    3.85896E-12   1.0272

 0.3930   1.0081       1.0000       0.0000       1.0410       99.132      -13.413
    7    3.40012E-12   1.0272

   TIME X- VALUE --X X--------- IDENTIFIER ---------X X- VALUE --X X--------- IDENTIFIER ---------X
 0.3980   1.0081     UUT_VOLTAGE                        1.0000     UUT_PELEC
    3     0.0000     UUT_QELEC                          1.0410     POC_VOLTAGE
    5     99.132     P_POC                             -13.413     Q_POC
    7    2.99583E-12 SYS FREQ DEVIATION                 1.0272     SMIB_VOLTAGE

 0.4030   1.0081       1.0000       0.0000       1.0410       99.132      -13.413
    7    2.63961E-12   1.0272

 0.4080   1.0081       1.0000       0.0000       1.0410       99.132      -13.413
    7    2.32575E-12   1.0272

 0.4130   1.0081       1.0000       0.0000       1.0410       99.132      -13.413
    7    2.04921E-12   1.0272

 0.4180   1.0081       1.0000       0.0000       1.0410       99.132      -13.413
    7    1.80555E-12   1.0272

   TIME X- VALUE --X X--------- IDENTIFIER ---------X X- VALUE --X X--------- IDENTIFIER ---------X
 0.4230   1.0081     UUT_VOLTAGE                        1.0000     UUT_PELEC
    3     0.0000     UUT_QELEC                          1.0410     POC_VOLTAGE
    5     99.132     P_POC                             -13.413     Q_POC
    7    1.59086E-12 SYS FREQ DEVIATION                 1.0272     SMIB_VOLTAGE

 0.4280   1.0081       1.0000       0.0000       1.0410       99.132      -13.413
    7    1.40170E-12   1.0272

 0.4330   1.0081       1.0000       0.0000       1.0410       99.132      -13.413
    7    1.23503E-12   1.0272

 0.4380   1.0081       1.0000       0.0000       1.0410       99.132      -13.413
    7    1.08818E-12   1.0272

 0.4430   1.0081       1.0000       0.0000       1.0410       99.132      -13.413
    7    9.58792E-13   1.0272

   TIME X- VALUE --X X--------- IDENTIFIER ---------X X- VALUE --X X--------- IDENTIFIER ---------X
 0.4480   1.0081     UUT_VOLTAGE                        1.0000     UUT_PELEC
    3     0.0000     UUT_QELEC                          1.0410     POC_VOLTAGE
    5     99.132     P_POC                             -13.413     Q_POC
    7    8.44788E-13 SYS FREQ DEVIATION                 1.0272     SMIB_VOLTAGE

 0.4530   1.0081       1.0000       0.0000       1.0410       99.132      -13.413
    7    7.44339E-13   1.0272

 0.4580   1.0081       1.0000       0.0000       1.0410       99.132      -13.413
    7    6.55834E-13   1.0272

 0.4630   1.0081       1.0000       0.0000       1.0410       99.132      -13.413
    7    5.77852E-13   1.0272

 0.4680   1.0081       1.0000       0.0000       1.0410       99.132      -13.413
    7    5.09143E-13   1.0272

   TIME X- VALUE --X X--------- IDENTIFIER ---------X X- VALUE --X X--------- IDENTIFIER ---------X
 0.4730   1.0081     UUT_VOLTAGE                        1.0000     UUT_PELEC
    3     0.0000     UUT_QELEC                          1.0410     POC_VOLTAGE
    5     99.132     P_POC                             -13.413     Q_POC
    7    4.48604E-13 SYS FREQ DEVIATION                 1.0272     SMIB_VOLTAGE

 0.4780   1.0081       1.0000       0.0000       1.0410       99.132      -13.413
    7    3.95263E-13   1.0272

 0.4830   1.0081       1.0000       0.0000       1.0410       99.132      -13.413
    7    3.48264E-13   1.0272

 0.4880   1.0081       1.0000       0.0000       1.0410       99.132      -13.413
    7    3.06854E-13   1.0272

 0.4930   1.0081       1.0000       0.0000       1.0410       99.132      -13.413
    7    2.70368E-13   1.0272

   TIME X- VALUE --X X--------- IDENTIFIER ---------X X- VALUE --X X--------- IDENTIFIER ---------X
 0.4980   1.0081     UUT_VOLTAGE                        1.0000     UUT_PELEC
    3     0.0000     UUT_QELEC                          1.0410     POC_VOLTAGE
    5     99.132     P_POC                             -13.413     Q_POC
    7    2.38220E-13 SYS FREQ DEVIATION                 1.0272     SMIB_VOLTAGE

 0.5030   1.0081       1.0000       0.0000       1.0410       99.132      -13.413
    7    2.09895E-13   1.0272

 0.5080   1.0081       1.0000       0.0000       1.0410       99.132      -13.413
    7    1.84937E-13   1.0272

 0.5130   1.0081       1.0000       0.0000       1.0410       99.132      -13.413
    7    1.62947E-13   1.0272

 0.5180   1.0081       1.0000       0.0000       1.0410       99.132      -13.413
    7    1.43572E-13   1.0272

   TIME X- VALUE --X X--------- IDENTIFIER ---------X X- VALUE --X X--------- IDENTIFIER ---------X
 0.5230   1.0081     UUT_VOLTAGE                        1.0000     UUT_PELEC
    3     0.0000     UUT_QELEC                          1.0410     POC_VOLTAGE
    5     99.132     P_POC                             -13.413     Q_POC
    7    1.26501E-13 SYS FREQ DEVIATION                 1.0272     SMIB_VOLTAGE

 0.5280   1.0081       1.0000       0.0000       1.0410       99.132      -13.413
    7    1.11459E-13   1.0272

 0.5330   1.0081       1.0000       0.0000       1.0410       99.132      -13.413
    7    9.82064E-14   1.0272

 0.5380   1.0081       1.0000       0.0000       1.0410       99.132      -13.413
    7    8.65293E-14   1.0272

 0.5430   1.0081       1.0000       0.0000       1.0410       99.132      -13.413
    7    7.62406E-14   1.0272

   TIME X- VALUE --X X--------- IDENTIFIER ---------X X- VALUE --X X--------- IDENTIFIER ---------X
 0.5480   1.0081     UUT_VOLTAGE                        1.0000     UUT_PELEC
    3     0.0000     UUT_QELEC                          1.0410     POC_VOLTAGE
    5     99.132     P_POC                             -13.413     Q_POC
    7    6.71752E-14 SYS FREQ DEVIATION                 1.0272     SMIB_VOLTAGE

 0.5530   1.0081       1.0000       0.0000       1.0410       99.132      -13.413
    7    5.91878E-14   1.0272

 0.5580   1.0081       1.0000       0.0000       1.0410       99.132      -13.413
    7    5.21501E-14   1.0272

 0.5630   1.0081       1.0000       0.0000       1.0410       99.132      -13.413
    7    4.59493E-14   1.0272

 0.5680   1.0081       1.0000       0.0000       1.0410       99.132      -13.413
    7    4.04857E-14   1.0272

   TIME X- VALUE --X X--------- IDENTIFIER ---------X X- VALUE --X X--------- IDENTIFIER ---------X
 0.5730   1.0081     UUT_VOLTAGE                        1.0000     UUT_PELEC
    3     0.0000     UUT_QELEC                          1.0410     POC_VOLTAGE
    5     99.132     P_POC                             -13.413     Q_POC
    7    3.56718E-14 SYS FREQ DEVIATION                 1.0272     SMIB_VOLTAGE

 0.5780   1.0081       1.0000       0.0000       1.0410       99.132      -13.413
    7    3.14302E-14   1.0272

 0.5830   1.0081       1.0000       0.0000       1.0410       99.132      -13.413
    7    2.76931E-14   1.0272

 0.5880   1.0081       1.0000       0.0000       1.0410       99.132      -13.413
    7    2.44002E-14   1.0272

 0.5930   1.0081       1.0000       0.0000       1.0410       99.132      -13.413
    7    2.14989E-14   1.0272

   TIME X- VALUE --X X--------- IDENTIFIER ---------X X- VALUE --X X--------- IDENTIFIER ---------X
 0.5980   1.0081     UUT_VOLTAGE                        1.0000     UUT_PELEC
    3     0.0000     UUT_QELEC                          1.0410     POC_VOLTAGE
    5     99.132     P_POC                             -13.413     Q_POC
    7    1.89426E-14 SYS FREQ DEVIATION                 1.0272     SMIB_VOLTAGE

 0.6030   1.0081       1.0000       0.0000       1.0410       99.132      -13.413
    7    1.66903E-14   1.0272

 0.6080   1.0081       1.0000       0.0000       1.0410       99.132      -13.413
    7    1.47057E-14   1.0272

 0.6130   1.0081       1.0000       0.0000       1.0410       99.132      -13.413
    7    1.29571E-14   1.0272

 0.6180   1.0081       1.0000       0.0000       1.0410       99.132      -13.413
    7    1.14165E-14   1.0272

   TIME X- VALUE --X X--------- IDENTIFIER ---------X X- VALUE --X X--------- IDENTIFIER ---------X
 0.6230   1.0081     UUT_VOLTAGE                        1.0000     UUT_PELEC
    3     0.0000     UUT_QELEC                          1.0410     POC_VOLTAGE
    5     99.132     P_POC                             -13.413     Q_POC
    7    1.00590E-14 SYS FREQ DEVIATION                 1.0272     SMIB_VOLTAGE

 0.6280   1.0081       1.0000       0.0000       1.0410       99.132      -13.413
    7    8.86295E-15   1.0272

 0.6330   1.0081       1.0000       0.0000       1.0410       99.132      -13.413
    7    7.80911E-15   1.0272

 0.6380   1.0081       1.0000       0.0000       1.0410       99.132      -13.413
    7    6.88057E-15   1.0272

 0.6430   1.0081       1.0000       0.0000       1.0410       99.132      -13.413
    7    6.06244E-15   1.0272

   TIME X- VALUE --X X--------- IDENTIFIER ---------X X- VALUE --X X--------- IDENTIFIER ---------X
 0.6480   1.0081     UUT_VOLTAGE                        1.0000     UUT_PELEC
    3     0.0000     UUT_QELEC                          1.0410     POC_VOLTAGE
    5     99.132     P_POC                             -13.413     Q_POC
    7    5.34159E-15 SYS FREQ DEVIATION                 1.0272     SMIB_VOLTAGE

 0.6530   1.0081       1.0000       0.0000       1.0410       99.132      -13.413
    7    4.70645E-15   1.0272

 0.6580   1.0081       1.0000       0.0000       1.0410       99.132      -13.413
    7    4.14684E-15   1.0272

 0.6630   1.0081       1.0000       0.0000       1.0410       99.132      -13.413
    7    3.65376E-15   1.0272

 0.6680   1.0081       1.0000       0.0000       1.0410       99.132      -13.413
    7    3.21931E-15   1.0272

   TIME X- VALUE --X X--------- IDENTIFIER ---------X X- VALUE --X X--------- IDENTIFIER ---------X
 0.6730   1.0081     UUT_VOLTAGE                        1.0000     UUT_PELEC
    3     0.0000     UUT_QELEC                          1.0410     POC_VOLTAGE
    5     99.132     P_POC                             -13.413     Q_POC
    7    2.83652E-15 SYS FREQ DEVIATION                 1.0272     SMIB_VOLTAGE

 0.6780   1.0081       1.0000       0.0000       1.0410       99.132      -13.413
    7    2.49925E-15   1.0272

 0.6830   1.0081       1.0000       0.0000       1.0410       99.132      -13.413
    7    2.20208E-15   1.0272

 0.6880   1.0081       1.0000       0.0000       1.0410       99.132      -13.413
    7    1.94024E-15   1.0272

 0.6930   1.0081       1.0000       0.0000       1.0410       99.132      -13.413
    7    1.70954E-15   1.0272

   TIME X- VALUE --X X--------- IDENTIFIER ---------X X- VALUE --X X--------- IDENTIFIER ---------X
 0.6980   1.0081     UUT_VOLTAGE                        1.0000     UUT_PELEC
    3     0.0000     UUT_QELEC                          1.0410     POC_VOLTAGE
    5     99.132     P_POC                             -13.413     Q_POC
    7    1.50627E-15 SYS FREQ DEVIATION                 1.0272     SMIB_VOLTAGE

 0.7030   1.0081       1.0000       0.0000       1.0410       99.132      -13.413
    7    1.32716E-15   1.0272

 0.7080   1.0081       1.0000       0.0000       1.0410       99.132      -13.413
    7    1.16936E-15   1.0272

 0.7130   1.0081       1.0000       0.0000       1.0410       99.132      -13.413
    7    1.03032E-15   1.0272

 0.7180   1.0081       1.0000       0.0000       1.0410       99.132      -13.413
    7    9.07808E-16   1.0272

   TIME X- VALUE --X X--------- IDENTIFIER ---------X X- VALUE --X X--------- IDENTIFIER ---------X
 0.7230   1.0081     UUT_VOLTAGE                        1.0000     UUT_PELEC
    3     0.0000     UUT_QELEC                          1.0410     POC_VOLTAGE
    5     99.132     P_POC                             -13.413     Q_POC
    7    7.99865E-16 SYS FREQ DEVIATION                 1.0272     SMIB_VOLTAGE

 0.7280   1.0081       1.0000       0.0000       1.0410       99.132      -13.413
    7    7.04758E-16   1.0272

 0.7330   1.0081       1.0000       0.0000       1.0410       99.132      -13.413
    7    6.20959E-16   1.0272

 0.7380   1.0081       1.0000       0.0000       1.0410       99.132      -13.413
    7    5.47124E-16   1.0272

 0.7430   1.0081       1.0000       0.0000       1.0410       99.132      -13.413
    7    4.82069E-16   1.0272

   TIME X- VALUE --X X--------- IDENTIFIER ---------X X- VALUE --X X--------- IDENTIFIER ---------X
 0.7480   1.0081     UUT_VOLTAGE                        1.0000     UUT_PELEC
    3     0.0000     UUT_QELEC                          1.0410     POC_VOLTAGE
    5     99.132     P_POC                             -13.413     Q_POC
    7    4.24749E-16 SYS FREQ DEVIATION                 1.0272     SMIB_VOLTAGE

 0.7530   1.0081       1.0000       0.0000       1.0410       99.132      -13.413
    7    3.74244E-16   1.0272

 0.7580   1.0081       1.0000       0.0000       1.0410       99.132      -13.413
    7    3.29745E-16   1.0272

 0.7630   1.0081       1.0000       0.0000       1.0410       99.132      -13.413
    7    2.90537E-16   1.0272

 0.7680   1.0081       1.0000       0.0000       1.0410       99.132      -13.413
    7    2.55991E-16   1.0272

   TIME X- VALUE --X X--------- IDENTIFIER ---------X X- VALUE --X X--------- IDENTIFIER ---------X
 0.7730   1.0081     UUT_VOLTAGE                        1.0000     UUT_PELEC
    3     0.0000     UUT_QELEC                          1.0410     POC_VOLTAGE
    5     99.132     P_POC                             -13.413     Q_POC
    7    2.25552E-16 SYS FREQ DEVIATION                 1.0272     SMIB_VOLTAGE

 0.7780   1.0081       1.0000       0.0000       1.0410       99.132      -13.413
    7    1.98733E-16   1.0272

 0.7830   1.0081       1.0000       0.0000       1.0410       99.132      -13.413
    7    1.75103E-16   1.0272

 0.7880   1.0081       1.0000       0.0000       1.0410       99.132      -13.413
    7    1.54283E-16   1.0272

 0.7930   1.0081       1.0000       0.0000       1.0410       99.132      -13.413
    7    1.35938E-16   1.0272

   TIME X- VALUE --X X--------- IDENTIFIER ---------X X- VALUE --X X--------- IDENTIFIER ---------X
 0.7980   1.0081     UUT_VOLTAGE                        1.0000     UUT_PELEC
    3     0.0000     UUT_QELEC                          1.0410     POC_VOLTAGE
    5     99.132     P_POC                             -13.413     Q_POC
    7    1.19774E-16 SYS FREQ DEVIATION                 1.0272     SMIB_VOLTAGE

 0.8030   1.0081       1.0000       0.0000       1.0410       99.132      -13.413
    7    1.05532E-16   1.0272

 0.8080   1.0081       1.0000       0.0000       1.0410       99.132      -13.413
    7    9.29842E-17   1.0272

 0.8130   1.0081       1.0000       0.0000       1.0410       99.132      -13.413
    7    8.19280E-17   1.0272

 0.8180   1.0081       1.0000       0.0000       1.0410       99.132      -13.413
    7    7.21864E-17   1.0272

   TIME X- VALUE --X X--------- IDENTIFIER ---------X X- VALUE --X X--------- IDENTIFIER ---------X
 0.8230   1.0081     UUT_VOLTAGE                        1.0000     UUT_PELEC
    3     0.0000     UUT_QELEC                          1.0410     POC_VOLTAGE
    5     99.132     P_POC                             -13.413     Q_POC
    7    6.36031E-17 SYS FREQ DEVIATION                 1.0272     SMIB_VOLTAGE

 0.8280   1.0081       1.0000       0.0000       1.0410       99.132      -13.413
    7    5.60404E-17   1.0272

 0.8330   1.0081       1.0000       0.0000       1.0410       99.132      -13.413
    7    4.93770E-17   1.0272

 0.8380   1.0081       1.0000       0.0000       1.0410       99.132      -13.413
    7    4.35058E-17   1.0272

 0.8430   1.0081       1.0000       0.0000       1.0410       99.132      -13.413
    7    3.83328E-17   1.0272

   TIME X- VALUE --X X--------- IDENTIFIER ---------X X- VALUE --X X--------- IDENTIFIER ---------X
 0.8480   1.0081     UUT_VOLTAGE                        1.0000     UUT_PELEC
    3     0.0000     UUT_QELEC                          1.0410     POC_VOLTAGE
    5     99.132     P_POC                             -13.413     Q_POC
    7    3.37749E-17 SYS FREQ DEVIATION                 1.0272     SMIB_VOLTAGE

 0.8530   1.0081       1.0000       0.0000       1.0410       99.132      -13.413
    7    2.97589E-17   1.0272

 0.8580   1.0081       1.0000       0.0000       1.0410       99.132      -13.413
    7    2.62204E-17   1.0272

 0.8630   1.0081       1.0000       0.0000       1.0410       99.132      -13.413
    7    2.31027E-17   1.0272

 0.8680   1.0081       1.0000       0.0000       1.0410       99.132      -13.413
    7    2.03557E-17   1.0272

   TIME X- VALUE --X X--------- IDENTIFIER ---------X X- VALUE --X X--------- IDENTIFIER ---------X
 0.8730   1.0081     UUT_VOLTAGE                        1.0000     UUT_PELEC
    3     0.0000     UUT_QELEC                          1.0410     POC_VOLTAGE
    5     99.132     P_POC                             -13.413     Q_POC
    7    1.79353E-17 SYS FREQ DEVIATION                 1.0272     SMIB_VOLTAGE

 0.8780   1.0081       1.0000       0.0000       1.0410       99.132      -13.413
    7    1.58027E-17   1.0272

 0.8830   1.0081       1.0000       0.0000       1.0410       99.132      -13.413
    7    1.39237E-17   1.0272

 0.8880   1.0081       1.0000       0.0000       1.0410       99.132      -13.413
    7    1.22681E-17   1.0272

 0.8930   1.0081       1.0000       0.0000       1.0410       99.132      -13.413
    7    1.08094E-17   1.0272

   TIME X- VALUE --X X--------- IDENTIFIER ---------X X- VALUE --X X--------- IDENTIFIER ---------X
 0.8980   1.0081     UUT_VOLTAGE                        1.0000     UUT_PELEC
    3     0.0000     UUT_QELEC                          1.0410     POC_VOLTAGE
    5     99.132     P_POC                             -13.413     Q_POC
    7    9.52411E-18 SYS FREQ DEVIATION                 1.0272     SMIB_VOLTAGE

 0.9030   1.0081       1.0000       0.0000       1.0410       99.132      -13.413
    7    8.39165E-18   1.0272

 0.9080   1.0081       1.0000       0.0000       1.0410       99.132      -13.413
    7    7.39385E-18   1.0272

 0.9130   1.0081       1.0000       0.0000       1.0410       99.132      -13.413
    7    6.51469E-18   1.0272

 0.9180   1.0081       1.0000       0.0000       1.0410       99.132      -13.413
    7    5.74006E-18   1.0272

   TIME X- VALUE --X X--------- IDENTIFIER ---------X X- VALUE --X X--------- IDENTIFIER ---------X
 0.9230   1.0081     UUT_VOLTAGE                        1.0000     UUT_PELEC
    3     0.0000     UUT_QELEC                          1.0410     POC_VOLTAGE
    5     99.132     P_POC                             -13.413     Q_POC
    7    5.05754E-18 SYS FREQ DEVIATION                 1.0272     SMIB_VOLTAGE

 0.9280   1.0081       1.0000       0.0000       1.0410       99.132      -13.413
    7    4.45618E-18   1.0272

 0.9330   1.0081       1.0000       0.0000       1.0410       99.132      -13.413
    7    3.92632E-18   1.0272

 0.9380   1.0081       1.0000       0.0000       1.0410       99.132      -13.413
    7    3.45947E-18   1.0272

 0.9430   1.0081       1.0000       0.0000       1.0410       99.132      -13.413
    7    3.04812E-18   1.0272

   TIME X- VALUE --X X--------- IDENTIFIER ---------X X- VALUE --X X--------- IDENTIFIER ---------X
 0.9480   1.0081     UUT_VOLTAGE                        1.0000     UUT_PELEC
    3     0.0000     UUT_QELEC                          1.0410     POC_VOLTAGE
    5     99.132     P_POC                             -13.413     Q_POC
    7    2.68568E-18 SYS FREQ DEVIATION                 1.0272     SMIB_VOLTAGE

 0.9530   1.0081       1.0000       0.0000       1.0410       99.132      -13.413
    7    2.36635E-18   1.0272

 0.9580   1.0081       1.0000       0.0000       1.0410       99.132      -13.413
    7    2.08498E-18   1.0272

 0.9630   1.0081       1.0000       0.0000       1.0410       99.132      -13.413
    7    1.83706E-18   1.0272

 0.9680   1.0081       1.0000       0.0000       1.0410       99.132      -13.413
    7    1.61863E-18   1.0272

   TIME X- VALUE --X X--------- IDENTIFIER ---------X X- VALUE --X X--------- IDENTIFIER ---------X
 0.9730   1.0081     UUT_VOLTAGE                        1.0000     UUT_PELEC
    3     0.0000     UUT_QELEC                          1.0410     POC_VOLTAGE
    5     99.132     P_POC                             -13.413     Q_POC
    7    1.42617E-18 SYS FREQ DEVIATION                 1.0272     SMIB_VOLTAGE

 0.9780   1.0081       1.0000       0.0000       1.0410       99.132      -13.413
    7    1.25659E-18   1.0272

 0.9830   1.0081       1.0000       0.0000       1.0410       99.132      -13.413
    7    1.10718E-18   1.0272

 0.9880   1.0081       1.0000       0.0000       1.0410       99.132      -13.413
    7    9.75528E-19   1.0272

 0.9930   1.0081       1.0000       0.0000       1.0410       99.132      -13.413
    7    8.59534E-19   1.0272

   TIME X- VALUE --X X--------- IDENTIFIER ---------X X- VALUE --X X--------- IDENTIFIER ---------X
 0.9980   1.0081     UUT_VOLTAGE                        1.0000     UUT_PELEC
    3     0.0000     UUT_QELEC                          1.0410     POC_VOLTAGE
    5     99.132     P_POC                             -13.413     Q_POC
    7    7.57331E-19 SYS FREQ DEVIATION                 1.0272     SMIB_VOLTAGE

 1.0030   1.0081       1.0000       0.0000       1.0410       99.131      -13.416
    7   -8.44287E-07   1.0272

 1.0080   1.0079      0.99999       0.0000       1.0409       99.123      -13.451
    7   -2.45747E-05   1.0272

 1.0130   1.0076      0.99998       0.0000       1.0407       99.114      -13.522
    7   -8.54682E-05   1.0272

 1.0180   1.0072      0.99997       0.0000       1.0404       99.107      -13.619
    7   -1.82823E-04   1.0272

   TIME X- VALUE --X X--------- IDENTIFIER ---------X X- VALUE --X X--------- IDENTIFIER ---------X
 1.0230   1.0068     UUT_VOLTAGE                       0.99997     UUT_PELEC
    3     0.0000     UUT_QELEC                          1.0400     POC_VOLTAGE
    5     99.103     P_POC                             -13.732     Q_POC
    7   -3.13984E-04 SYS FREQ DEVIATION                 1.0271     SMIB_VOLTAGE

 1.0280   1.0063      0.99997       0.0000       1.0397       99.100      -13.855
    7   -4.75986E-04   1.0271

 1.0330   1.0057      0.99997       0.0000       1.0393       99.098      -13.983
    7   -6.65861E-04   1.0271

 1.0380   1.0052      0.99997       0.0000       1.0389       99.097      -14.115
    7   -8.80743E-04   1.0271

 1.0430   1.0047      0.99997       0.0000       1.0385       99.096      -14.246
    7   -1.11795E-03   1.0271

   TIME X- VALUE --X X--------- IDENTIFIER ---------X X- VALUE --X X--------- IDENTIFIER ---------X
 1.0480   1.0041     UUT_VOLTAGE                       0.99997     UUT_PELEC
    3     0.0000     UUT_QELEC                          1.0382     POC_VOLTAGE
    5     99.095     P_POC                             -14.377     Q_POC
    7   -1.37502E-03 SYS FREQ DEVIATION                 1.0271     SMIB_VOLTAGE

 1.0530   1.0036      0.99997       0.0000       1.0378       99.095      -14.507
    7   -1.64969E-03   1.0271

 1.0580   1.0031      0.99997       0.0000       1.0374       99.094      -14.634
    7   -1.93992E-03   1.0271

 1.0630   1.0026      0.99997       0.0000       1.0371       99.093      -14.759
    7   -2.24390E-03   1.0271

 1.0680   1.0021      0.99997       0.0000       1.0368       99.092      -14.880
    7   -2.55997E-03   1.0271

   TIME X- VALUE --X X--------- IDENTIFIER ---------X X- VALUE --X X--------- IDENTIFIER ---------X
 1.0730   1.0016     UUT_VOLTAGE                       0.99997     UUT_PELEC
    3     0.0000     UUT_QELEC                          1.0364     POC_VOLTAGE
    5     99.091     P_POC                             -14.999     Q_POC
    7   -2.88671E-03 SYS FREQ DEVIATION                 1.0271     SMIB_VOLTAGE

 1.0780   1.0012      0.99997       0.0000       1.0361       99.090      -15.115
    7   -3.22281E-03   1.0271

 1.0830   1.0007      0.99997       0.0000       1.0358       99.089      -15.228
    7   -3.56714E-03   1.0271

 1.0880   1.0003      0.99997       0.0000       1.0355       99.087      -15.338
    7   -3.91870E-03   1.0271

 1.0930  0.99988      0.99997       0.0000       1.0352       99.086      -15.445
    7   -4.27659E-03   1.0271

   TIME X- VALUE --X X--------- IDENTIFIER ---------X X- VALUE --X X--------- IDENTIFIER ---------X
 1.0980  0.99947     UUT_VOLTAGE                       0.99997     UUT_PELEC
    3     0.0000     UUT_QELEC                          1.0349     POC_VOLTAGE
    5     99.084     P_POC                             -15.550     Q_POC
    7   -4.64003E-03 SYS FREQ DEVIATION                 1.0271     SMIB_VOLTAGE

 1.1030  0.99908      0.99998       0.0000       1.0346       99.082      -15.652
    7   -5.00833E-03   1.0271

 1.1080  0.99870      0.99998       0.0000       1.0344       99.080      -15.751
    7   -5.38090E-03   1.0271

 1.1130  0.99832      0.99998       0.0000       1.0341       99.079      -15.848
    7   -5.75720E-03   1.0271

 1.1180  0.99796      0.99998       0.0000       1.0339       99.077      -15.942
    7   -6.13676E-03   1.0271

   TIME X- VALUE --X X--------- IDENTIFIER ---------X X- VALUE --X X--------- IDENTIFIER ---------X
 1.1230  0.99761     UUT_VOLTAGE                       0.99998     UUT_PELEC
    3     0.0000     UUT_QELEC                          1.0336     POC_VOLTAGE
    5     99.075     P_POC                             -16.035     Q_POC
    7   -6.51918E-03 SYS FREQ DEVIATION                 1.0271     SMIB_VOLTAGE

 1.1280  0.99727      0.99998       0.0000       1.0334       99.072      -16.124
    7   -6.90410E-03   1.0271

 1.1330  0.99694      0.99998       0.0000       1.0332       99.070      -16.212
    7   -7.29119E-03   1.0271

 1.1380  0.99662      0.99998       0.0000       1.0330       99.068      -16.298
    7   -7.68018E-03   1.0271

 1.1430  0.99630      0.99998       0.0000       1.0327       99.066      -16.381
    7   -8.07083E-03   1.0271

   TIME X- VALUE --X X--------- IDENTIFIER ---------X X- VALUE --X X--------- IDENTIFIER ---------X
 1.1480  0.99600     UUT_VOLTAGE                       0.99998     UUT_PELEC
    3     0.0000     UUT_QELEC                          1.0325     POC_VOLTAGE
    5     99.063     P_POC                             -16.463     Q_POC
    7   -8.46293E-03 SYS FREQ DEVIATION                 1.0271     SMIB_VOLTAGE

 1.1530  0.99570      0.99998       0.0000       1.0323       99.061      -16.543
    7   -8.85629E-03   1.0271

 1.1580  0.99541      0.99998       0.0000       1.0321       99.059      -16.620
    7   -9.25075E-03   1.0271

 1.1630  0.99513      0.99998       0.0000       1.0320       99.056      -16.697
    7   -9.64617E-03   1.0271

 1.1680  0.99486      0.99998       0.0000       1.0318       99.054      -16.771
    7   -1.00424E-02   1.0271

   TIME X- VALUE --X X--------- IDENTIFIER ---------X X- VALUE --X X--------- IDENTIFIER ---------X
 1.1730  0.99459     UUT_VOLTAGE                       0.99998     UUT_PELEC
    3     0.0000     UUT_QELEC                          1.0316     POC_VOLTAGE
    5     99.051     P_POC                             -16.844     Q_POC
    7   -1.04394E-02 SYS FREQ DEVIATION                 1.0271     SMIB_VOLTAGE

 1.1780  0.99433      0.99998       0.0000       1.0314       99.049      -16.915
    7   -1.08370E-02   1.0271

 1.1830  0.99408      0.99998       0.0000       1.0312       99.046      -16.985
    7   -1.12351E-02   1.0271

 1.1880  0.99384      0.99998       0.0000       1.0311       99.044      -17.053
    7   -1.16337E-02   1.0271

 1.1930  0.99360      0.99998       0.0000       1.0309       99.041      -17.120
    7   -1.20327E-02   1.0271

   TIME X- VALUE --X X--------- IDENTIFIER ---------X X- VALUE --X X--------- IDENTIFIER ---------X
 1.1980  0.99336     UUT_VOLTAGE                       0.99999     UUT_PELEC
    3     0.0000     UUT_QELEC                          1.0308     POC_VOLTAGE
    5     99.039     P_POC                             -17.185     Q_POC
    7   -1.24320E-02 SYS FREQ DEVIATION                 1.0271     SMIB_VOLTAGE

 1.2030  0.99314      0.99999       0.0000       1.0306       99.036      -17.249
    7   -1.28317E-02   1.0271

 1.2080  0.99291      0.99999       0.0000       1.0305       99.033      -17.312
    7   -1.32316E-02   1.0270

 1.2130  0.99270      0.99999       0.0000       1.0303       99.031      -17.373
    7   -1.36317E-02   1.0270

 1.2180  0.99249      0.99999       0.0000       1.0302       99.028      -17.434
    7   -1.40320E-02   1.0270

   TIME X- VALUE --X X--------- IDENTIFIER ---------X X- VALUE --X X--------- IDENTIFIER ---------X
 1.2230  0.99227     UUT_VOLTAGE                       0.99999     UUT_PELEC
    3     0.0000     UUT_QELEC                          1.0301     POC_VOLTAGE
    5     99.024     P_POC                             -17.498     Q_POC
    7   -1.44325E-02 SYS FREQ DEVIATION                 1.0271     SMIB_VOLTAGE

 1.2280  0.99239       1.0000       0.0000       1.0301       99.038      -17.487
    7   -1.48937E-02   1.0270

 1.2330  0.99243       1.0000       0.0000       1.0302       99.043      -17.495
    7   -1.53747E-02   1.0271

 1.2380  0.99249       1.0000       0.0000       1.0303       99.042      -17.494
    7   -1.57761E-02   1.0271

 1.2430  0.99249       1.0000       0.0000       1.0303       99.038      -17.503
    7   -1.61680E-02   1.0271

   TIME X- VALUE --X X--------- IDENTIFIER ---------X X- VALUE --X X--------- IDENTIFIER ---------X
 1.2480  0.99249     UUT_VOLTAGE                        1.0000     UUT_PELEC
    3     0.0000     UUT_QELEC                          1.0303     POC_VOLTAGE
    5     99.027     P_POC                             -17.514     Q_POC
    7   -1.65068E-02 SYS FREQ DEVIATION                 1.0271     SMIB_VOLTAGE

 1.2530  0.99254      0.99999       0.0000       1.0303       99.052      -17.523
    7   -1.71709E-02   1.0271

 1.2580  0.99268       1.0000       0.0000       1.0305       99.048      -17.499
    7   -1.74044E-02   1.0271

 1.2630  0.99296       1.0000       0.0000       1.0307       99.042      -17.438
    7   -1.75869E-02   1.0271

 1.2680  0.99337       1.0000       0.0000       1.0310       99.064      -17.360
    7   -1.80331E-02   1.0271

   TIME X- VALUE --X X--------- IDENTIFIER ---------X X- VALUE --X X--------- IDENTIFIER ---------X
 1.2730  0.99374     UUT_VOLTAGE                        1.0000     UUT_PELEC
    3     0.0000     UUT_QELEC                          1.0313     POC_VOLTAGE
    5     99.058     P_POC                             -17.275     Q_POC
    7   -1.81794E-02 SYS FREQ DEVIATION                 1.0271     SMIB_VOLTAGE

 1.2780  0.99415       1.0000       0.0000       1.0316       99.081      -17.195
    7   -1.86224E-02   1.0271

 1.2830  0.99457       1.0000       0.0000       1.0319       99.065      -17.097
    7   -1.86098E-02   1.0271

 1.2880  0.99502       1.0000       0.0000       1.0322       99.090      -17.006
    7   -1.90162E-02   1.0271

 1.2930  0.99538       1.0000       0.0000       1.0325       99.076      -16.918
    7   -1.90117E-02   1.0271

   TIME X- VALUE --X X--------- IDENTIFIER ---------X X- VALUE --X X--------- IDENTIFIER ---------X
 1.2980  0.99577     UUT_VOLTAGE                        1.0000     UUT_PELEC
    3     0.0000     UUT_QELEC                          1.0327     POC_VOLTAGE
    5     99.066     P_POC                             -16.825     Q_POC
    7   -1.90016E-02 SYS FREQ DEVIATION                 1.0271     SMIB_VOLTAGE

 1.3030  0.99620       1.0000       0.0000       1.0331       99.083      -16.735
    7   -1.92776E-02   1.0271

 1.3080  0.99655       1.0000       0.0000       1.0333       99.076      -16.651
    7   -1.92730E-02   1.0271

 1.3130  0.99690       1.0000       0.0000       1.0336       99.096      -16.578
    7   -1.95817E-02   1.0271

 1.3180  0.99725       1.0000       0.0000       1.0338       99.078      -16.492
    7   -1.94510E-02   1.0271

   TIME X- VALUE --X X--------- IDENTIFIER ---------X X- VALUE --X X--------- IDENTIFIER ---------X
 1.3230  0.99761     UUT_VOLTAGE                        1.0000     UUT_PELEC
    3     0.0000     UUT_QELEC                          1.0341     POC_VOLTAGE
    5     99.103     P_POC                             -16.418     Q_POC
    7   -1.97524E-02 SYS FREQ DEVIATION                 1.0271     SMIB_VOLTAGE

 1.3280  0.99789       1.0000       0.0000       1.0343       99.088      -16.347
    7   -1.96562E-02   1.0271

 1.3330  0.99818       1.0000       0.0000       1.0345       99.077      -16.274
    7   -1.95654E-02   1.0271

 1.3380  0.99853       1.0000       0.0000       1.0348       99.093      -16.201
    7   -1.97697E-02   1.0271

 1.3430  0.99878       1.0000       0.0000       1.0350       99.086      -16.138
    7   -1.97029E-02   1.0271

   TIME X- VALUE --X X--------- IDENTIFIER ---------X X- VALUE --X X--------- IDENTIFIER ---------X
 1.3480  0.99906     UUT_VOLTAGE                        1.0000     UUT_PELEC
    3     0.0000     UUT_QELEC                          1.0352     POC_VOLTAGE
    5     99.106     P_POC                             -16.082     Q_POC
    7   -1.99563E-02 SYS FREQ DEVIATION                 1.0271     SMIB_VOLTAGE

 1.3530  0.99933       1.0000       0.0000       1.0353       99.087      -16.013
    7   -1.97778E-02   1.0271

 1.3580  0.99960       1.0000       0.0000       1.0355       99.112      -15.957
    7   -2.00367E-02   1.0271

 1.3630  0.99981       1.0000       0.0000       1.0357       99.096      -15.902
    7   -1.99037E-02   1.0271

 1.3680   1.0000       1.0000       0.0000       1.0358       99.085      -15.846
    7   -1.97807E-02   1.0271

   TIME X- VALUE --X X--------- IDENTIFIER ---------X X- VALUE --X X--------- IDENTIFIER ---------X
 1.3730   1.0003     UUT_VOLTAGE                        1.0000     UUT_PELEC
    3     0.0000     UUT_QELEC                          1.0361     POC_VOLTAGE
    5     99.101     P_POC                             -15.788     Q_POC
    7   -1.99565E-02 SYS FREQ DEVIATION                 1.0271     SMIB_VOLTAGE

 1.3780   1.0005       1.0000       0.0000       1.0362       99.093      -15.741
    7   -1.98650E-02   1.0271

 1.3830   1.0007       1.0000       0.0000       1.0363       99.113      -15.698
    7   -2.00966E-02   1.0271

 1.3880   1.0009       1.0000       0.0000       1.0365       99.094      -15.641
    7   -1.98992E-02   1.0271

 1.3930   1.0011       1.0000       0.0000       1.0367       99.118      -15.599
    7   -2.01414E-02   1.0271

   TIME X- VALUE --X X--------- IDENTIFIER ---------X X- VALUE --X X--------- IDENTIFIER ---------X
 1.3980   1.0013     UUT_VOLTAGE                        1.0000     UUT_PELEC
    3     0.0000     UUT_QELEC                          1.0368     POC_VOLTAGE
    5     99.102     P_POC                             -15.557     Q_POC
    7   -1.99941E-02 SYS FREQ DEVIATION                 1.0271     SMIB_VOLTAGE

 1.4030   1.0014       1.0000       0.0000       1.0369       99.091      -15.514
    7   -1.98585E-02   1.0271

 1.4080   1.0017       1.0000       0.0000       1.0370       99.107      -15.466
    7   -2.00232E-02   1.0271

 1.4130   1.0018       1.0000       0.0000       1.0371       99.099      -15.431
    7   -1.99221E-02   1.0271

 1.4180   1.0020       1.0000       0.0000       1.0373       99.118      -15.398
    7   -2.01451E-02   1.0271

   TIME X- VALUE --X X--------- IDENTIFIER ---------X X- VALUE --X X--------- IDENTIFIER ---------X
 1.4230   1.0021     UUT_VOLTAGE                        1.0000     UUT_PELEC
    3     0.0000     UUT_QELEC                          1.0374     POC_VOLTAGE
    5     99.099     P_POC                             -15.351     Q_POC
    7   -1.99406E-02 SYS FREQ DEVIATION                 1.0271     SMIB_VOLTAGE

 1.4280   1.0023       1.0000       0.0000       1.0375       99.123      -15.319
    7   -2.01763E-02   1.0271

 1.4330   1.0024       1.0000       0.0000       1.0376       99.107      -15.286
    7   -2.00235E-02   1.0271

 1.4380   1.0025       1.0000       0.0000       1.0377       99.096      -15.253
    7   -1.98832E-02   1.0271

 1.4430   1.0027       1.0000       0.0000       1.0378       99.111      -15.213
    7   -2.00435E-02   1.0271

   TIME X- VALUE --X X--------- IDENTIFIER ---------X X- VALUE --X X--------- IDENTIFIER ---------X
 1.4480   1.0028     UUT_VOLTAGE                        1.0000     UUT_PELEC
    3     0.0000     UUT_QELEC                          1.0379     POC_VOLTAGE
    5     99.103     P_POC                             -15.187     Q_POC
    7   -1.99389E-02 SYS FREQ DEVIATION                 1.0271     SMIB_VOLTAGE

 1.4530   1.0030       1.0000       0.0000       1.0380       99.122      -15.162
    7   -2.01587E-02   1.0271

 1.4580   1.0031       1.0000       0.0000       1.0381       99.102      -15.123
    7   -1.99515E-02   1.0271

 1.4630   1.0032       1.0000       0.0000       1.0382       99.126      -15.099
    7   -2.01847E-02   1.0271

 1.4680   1.0033       1.0000       0.0000       1.0382       99.110      -15.073
    7   -2.00300E-02   1.0271

   TIME X- VALUE --X X--------- IDENTIFIER ---------X X- VALUE --X X--------- IDENTIFIER ---------X
 1.4730   1.0034     UUT_VOLTAGE                        1.0000     UUT_PELEC
    3     0.0000     UUT_QELEC                          1.0383     POC_VOLTAGE
    5     99.099     P_POC                             -15.047     Q_POC
    7   -1.98880E-02 SYS FREQ DEVIATION                 1.0271     SMIB_VOLTAGE

 1.4780   1.0036       1.0000       0.0000       1.0384       99.114      -15.013
    7   -2.00468E-02   1.0271

 1.4830   1.0036       1.0000       0.0000       1.0385       99.105      -14.995
    7   -1.99409E-02   1.0271

 1.4880   1.0038      0.99999       0.0000       1.0385       99.124      -14.976
    7   -2.01595E-02   1.0271

 1.4930   1.0039       1.0000       0.0000       1.0386       99.105      -14.942
    7   -1.99515E-02   1.0271

   TIME X- VALUE --X X--------- IDENTIFIER ---------X X- VALUE --X X--------- IDENTIFIER ---------X
 1.4980   1.0040     UUT_VOLTAGE                        1.0000     UUT_PELEC
    3     0.0000     UUT_QELEC                          1.0387     POC_VOLTAGE
    5     99.129     P_POC                             -14.925     Q_POC
    7   -2.01838E-02 SYS FREQ DEVIATION                 1.0271     SMIB_VOLTAGE

 1.5030   1.0040       1.0000       0.0000       1.0388       99.113      -14.904
    7   -2.00284E-02   1.0271

 1.5080   1.0041       1.0000       0.0000       1.0388       99.101      -14.885
    7   -1.98859E-02   1.0271

 1.5130   1.0042       1.0000       0.0000       1.0389       99.116      -14.856
    7   -2.00442E-02   1.0271

 1.5180   1.0043       1.0000       0.0000       1.0389       99.108      -14.843
    7   -1.99380E-02   1.0271

   TIME X- VALUE --X X--------- IDENTIFIER ---------X X- VALUE --X X--------- IDENTIFIER ---------X
 1.5230   1.0044     UUT_VOLTAGE                       0.99999     UUT_PELEC
    3     0.0000     UUT_QELEC                          1.0390     POC_VOLTAGE
    5     99.126     P_POC                             -14.828     Q_POC
    7   -2.01562E-02 SYS FREQ DEVIATION                 1.0271     SMIB_VOLTAGE

 1.5280   1.0045       1.0000       0.0000       1.0391       99.107      -14.799
    7   -1.99480E-02   1.0271

 1.5330   1.0045       1.0000       0.0000       1.0391       99.130      -14.787
    7   -2.01801E-02   1.0271

 1.5380   1.0046       1.0000       0.0000       1.0392       99.114      -14.770
    7   -2.00246E-02   1.0271

 1.5430   1.0046       1.0000       0.0000       1.0392       99.102      -14.756
    7   -1.98820E-02   1.0271

   TIME X- VALUE --X X--------- IDENTIFIER ---------X X- VALUE --X X--------- IDENTIFIER ---------X
 1.5480   1.0048     UUT_VOLTAGE                        1.0000     UUT_PELEC
    3     0.0000     UUT_QELEC                          1.0393     POC_VOLTAGE
    5     99.118     P_POC                             -14.731     Q_POC
    7   -2.00402E-02 SYS FREQ DEVIATION                 1.0271     SMIB_VOLTAGE

 1.5530   1.0048       1.0000       0.0000       1.0393       99.109      -14.722
    7   -1.99339E-02   1.0271

 1.5580   1.0049      0.99999       0.0000       1.0393       99.128      -14.712
    7   -2.01521E-02   1.0271

 1.5630   1.0049       1.0000       0.0000       1.0394       99.108      -14.686
    7   -1.99438E-02   1.0271

 1.5680   1.0050       1.0000       0.0000       1.0395       99.132      -14.678
    7   -2.01759E-02   1.0271

   TIME X- VALUE --X X--------- IDENTIFIER ---------X X- VALUE --X X--------- IDENTIFIER ---------X
...